[General]
network = PPNet
**.logger = true
sim-time-limit = 50s

[Config Different_Constant_AT]
**.producerLow.arrivalMean = 4
**.producerHigh.arrivalMean = 1

[Config Equal_Constant_AT]
**.producerLow.arrivalMean = 1
**.producerHigh.arrivalMean = 1

[Config Different_Constant_AT_2]
**.producerLow.arrivalMean = 2
**.producerHigh.arrivalMean = 0.1

[Config Exponential]
**.producerLow.arrivalDistribution = 1
**.producerHigh.arrivalDistribution = 1
**.producerLow.arrivalMean = 1
**.producerHigh.arrivalMean = 4